/*---------------------------------------------------------------------------*\
| =========                 |                                                 |
| \\      /  F ield         | OpenFOAM: The Open Source CFD Toolbox           |
|  \\    /   O peration     | Version:  v1906                                 |
|   \\  /    A nd           | Web:      www.OpenFOAM.com                      |
|    \\/     M anipulation  |                                                 |
\*---------------------------------------------------------------------------*/
Build  : v1906 OPENFOAM=1906
Arch   : "LSB;label=32;scalar=64"
Exec   : snappyHexMesh -overwrite
Date   : Jun 17 2020
Time   : 12:40:37
Host   : LAPTOP-ODVE2UUP
PID    : 2135
I/O    : uncollated
Case   : /home/allen/inter_tutorial/icavity
nProcs : 1
trapFpe: Floating point exception trapping enabled (FOAM_SIGFPE).
fileModificationChecking : Monitoring run-time modified files using timeStampMaster (fileModificationSkew 10)
allowSystemOperations : Allowing user-supplied system call operations

// * * * * * * * * * * * * * * * * * * * * * * * * * * * * * * * * * * * * * //
Create time

Create mesh for time = 0

Read mesh in = 0.38 s

Overall mesh bounding box  : (-1 -1 -1) (1 1 41)
Relative tolerance         : 1e-06
Absolute matching distance : 4.20951e-05

Reading refinement surfaces.
Read refinement surfaces in = 0 s

Reading refinement shells.
Read refinement shells in = 0 s

Setting refinement level of surface to be consistent with shells.
For geometry cylinder.stl detected 0 uncached triangles out of 28
Checked shell refinement in = 0 s

Reading features.
Read features in = 0 s


Determining initial surface intersections
-----------------------------------------

Edge intersection testing:
    Number of edges             : 124400
    Number of edges to retest   : 0
    Number of intersected edges : 0
Edge intersection testing:
    Number of edges             : 124400
    Number of edges to retest   : 124400
    Number of intersected edges : 3160
Calculated surface intersections in = 0.24 s

Initial mesh : cells:40000  faces:124400  points:44541
Cells per refinement level:
    0	40000

Adding patches for surface regions
----------------------------------

Patch Type                Region                        
----- ----                ------                        
cylinder:

3     wall                cylinder                      

Added patches in = 0 s

Edge intersection testing:
    Number of edges             : 124400
    Number of edges to retest   : 0
    Number of intersected edges : 3160
Selecting decompositionMethod none [1]

Refinement phase
----------------

Found point (0.03 0.03 0.17) in cell 1010 on processor 0

Surface refinement iteration 0
------------------------------

Marked for refinement due to surface intersection          : 4360 cells.
Marked for refinement due to curvature/regions             : 0 cells.
Determined cells to refine in = 0.07 s
Selected for refinement : 4360 cells (out of 40000)
Edge intersection testing:
    Number of edges             : 225476
    Number of edges to retest   : 129304
    Number of intersected edges : 12528
Refined mesh in = 0.33 s
After refinement surface refinement iteration 0 : cells:70520  faces:225476  points:84589
Cells per refinement level:
    0	35640
    1	34880

Surface refinement iteration 1
------------------------------

Marked for refinement due to surface intersection          : 18128 cells.
Marked for refinement due to curvature/regions             : 0 cells.
Determined cells to refine in = 0 s
Selected for refinement : 20080 cells (out of 70520)
Edge intersection testing:
    Number of edges             : 683612
    Number of edges to retest   : 587700
    Number of intersected edges : 50088
Refined mesh in = 1.16 s
After refinement surface refinement iteration 1 : cells:211080  faces:683612  points:261623
Cells per refinement level:
    0	33688
    1	32368
    2	145024

Surface refinement iteration 2
------------------------------

Marked for refinement due to surface intersection          : 16 cells.
Marked for refinement due to curvature/regions             : 200 cells.
Determined cells to refine in = 0.09 s
Selected for refinement : 216 cells (out of 211080)
Edge intersection testing:
    Number of edges             : 689492
    Number of edges to retest   : 10672
    Number of intersected edges : 51528
Refined mesh in = 0.66 s
After refinement surface refinement iteration 2 : cells:212592  faces:689492  points:264727
Cells per refinement level:
    0	33688
    1	32352
    2	144952
    3	1600

Surface refinement iteration 3
------------------------------

Marked for refinement due to surface intersection          : 0 cells.
Marked for refinement due to curvature/regions             : 72 cells.
Determined cells to refine in = 0.17 s
Selected for refinement : 152 cells (out of 212592)
Edge intersection testing:
    Number of edges             : 693140
    Number of edges to retest   : 10456
    Number of intersected edges : 51912
Refined mesh in = 0.76 s
After refinement surface refinement iteration 3 : cells:213656  faces:693140  points:266295
Cells per refinement level:
    0	33656
    1	32560
    2	145264
    3	2176

Surface refinement iteration 4
------------------------------

Marked for refinement due to surface intersection          : 0 cells.
Marked for refinement due to curvature/regions             : 112 cells.
Determined cells to refine in = 0.1 s
Selected for refinement : 128 cells (out of 213656)
Edge intersection testing:
    Number of edges             : 696212
    Number of edges to retest   : 9048
    Number of intersected edges : 52344
Refined mesh in = 0.67 s
After refinement surface refinement iteration 4 : cells:214552  faces:696212  points:267543
Cells per refinement level:
    0	33656
    1	32544
    2	145280
    3	3072

Surface refinement iteration 5
------------------------------

Marked for refinement due to surface intersection          : 0 cells.
Marked for refinement due to curvature/regions             : 0 cells.
Determined cells to refine in = 0.1 s
Selected for refinement : 0 cells (out of 214552)
Stopping refining since too few cells selected.


Removing mesh beyond surface intersections
------------------------------------------

Setting cellZones according to locationsInMesh:
Location : (0.03 0.03 0.17)
    cellZone : none

For cellZone none found point (0.03 0.03 0.17) in global region 1 out of 2 regions.
Keeping all cells containing inside points
Selected for keeping : 214552 cells.
Edge intersection testing:
    Number of edges             : 696212
    Number of edges to retest   : 0
    Number of intersected edges : 52344
Setting cellZones according to locationsInMesh:
Location : (0.03 0.03 0.17)
    cellZone : none

For cellZone none found point (0.03 0.03 0.17) in global region 1 out of 2 regions.
Keeping all cells containing inside points
Selected for keeping : 143256 cells.
Edge intersection testing:
    Number of edges             : 485976
    Number of edges to retest   : 62648
    Number of intersected edges : 52344

Shell refinement iteration 0
----------------------------

Marked for refinement due to distance to explicit features : 0 cells.
Marked for refinement due to refinement shells             : 0 cells.
Determined cells to refine in = 1.45 s
Selected for internal refinement : 4648 cells (out of 143256)
Edge intersection testing:
    Number of edges             : 582807
    Number of edges to retest   : 271575
    Number of intersected edges : 52864
Refined mesh in = 0.75 s
After refinement shell refinement iteration 0 : cells:175792  faces:582807  points:231722
Cells per refinement level:
    0	9720
    1	10408
    2	148656
    3	7008

Shell refinement iteration 1
----------------------------

Marked for refinement due to distance to explicit features : 0 cells.
Marked for refinement due to refinement shells             : 0 cells.
Determined cells to refine in = 0.15 s
Selected for internal refinement : 936 cells (out of 175792)
Edge intersection testing:
    Number of edges             : 602172
    Number of edges to retest   : 77587
    Number of intersected edges : 53136
Refined mesh in = 0.61 s
After refinement shell refinement iteration 1 : cells:182344  faces:602172  points:237927
Cells per refinement level:
    0	9352
    1	12976
    2	151472
    3	8544

Shell refinement iteration 2
----------------------------

Marked for refinement due to distance to explicit features : 0 cells.
Marked for refinement due to refinement shells             : 0 cells.
Determined cells to refine in = 0.18 s
Selected for internal refinement : 56 cells (out of 182344)
Edge intersection testing:
    Number of edges             : 603420
    Number of edges to retest   : 4376
    Number of intersected edges : 53232
Refined mesh in = 0.58 s
After refinement shell refinement iteration 2 : cells:182736  faces:603420  points:238391
Cells per refinement level:
    0	9352
    1	12976
    2	151416
    3	8992

Shell refinement iteration 3
----------------------------

Marked for refinement due to distance to explicit features : 0 cells.
Marked for refinement due to refinement shells             : 0 cells.
Determined cells to refine in = 0.16 s
Selected for internal refinement : 8 cells (out of 182736)
Stopping refining since too few cells selected.


Dangling coarse cells refinement iteration 0
--------------------------------------------

Determined cells to refine in = 0.01 s
Selected for refinement : 0 cells (out of 182736)
Stopping refining since too few cells selected.


Dangling coarse cells refinement iteration 0
--------------------------------------------

Determined cells to refine in = 0 s
Selected for refinement : 0 cells (out of 182736)
Stopping refining since too few cells selected.


Refinement transition refinement iteration 0
--------------------------------------------

Determined cells to refine in = 0.02 s
Selected for refinement : 0 cells (out of 182736)
Stopping refining since too few cells selected.


Splitting mesh at surface intersections
---------------------------------------

Introducing baffles for 53232 faces that are intersected by the surface.

Setting cellZones according to locationsInMesh:
Location : (0.03 0.03 0.17)
    cellZone : none

For cellZone none found point (0.03 0.03 0.17) in global region 2 out of 3 regions.
Edge intersection testing:
    Number of edges             : 656652
    Number of edges to retest   : 333164
    Number of intersected edges : 105880
Created baffles in = 0.67 s


After introducing baffles : cells:182736  faces:656652  points:238391
Cells per refinement level:
    0	9352
    1	12976
    2	151416
    3	8992

Introducing baffles to block off problem cells
----------------------------------------------

markFacesOnProblemCells : marked 107900 additional internal faces to be converted into baffles.
Analyzed problem cells in = 0.47 s


Introducing baffles to delete problem cells.

Edge intersection testing:
    Number of edges             : 764552
    Number of edges to retest   : 328456
    Number of intersected edges : 105880
Created baffles in = 0.64 s


After introducing baffles : cells:182736  faces:764552  points:238391
Cells per refinement level:
    0	9352
    1	12976
    2	151416
    3	8992
Setting cellZones according to locationsInMesh:
Location : (0.03 0.03 0.17)
    cellZone : none

For cellZone none found point (0.03 0.03 0.17) in global region 4 out of 53170 regions.
Edge intersection testing:
    Number of edges             : 764552
    Number of edges to retest   : 393384
    Number of intersected edges : 105880

Remove unreachable sections of mesh
-----------------------------------

Keeping all cells containing points 1((0.03 0.03 0.17))
Selected for keeping : 118248 cells.
Edge intersection testing:
    Number of edges             : 398460
    Number of edges to retest   : 0
    Number of intersected edges : 52728
Split mesh in = 1.38 s


After subsetting : cells:118248  faces:398460  points:162329
Cells per refinement level:
    0	1104
    1	12976
    2	100400
    3	3768

Introducing zones for interfaces
--------------------------------

Setting cellZones according to locationsInMesh:
Location : (0.03 0.03 0.17)
    cellZone : none

For cellZone none found point (0.03 0.03 0.17) in global region 0 out of 1 regions.
Setting faceZones according to neighbouring cellZones:

Edge intersection testing:
    Number of edges             : 398460
    Number of edges to retest   : 0
    Number of intersected edges : 52728

Handling cells with snap problems
---------------------------------

Introducing baffles for 52728 faces that are intersected by the surface.

Setting cellZones according to locationsInMesh:
Location : (0.03 0.03 0.17)
    cellZone : none

For cellZone none found point (0.03 0.03 0.17) in global region 0 out of 1 regions.
Edge intersection testing:
    Number of edges             : 398460
    Number of edges to retest   : 161656
    Number of intersected edges : 52728
Created baffles in = 0.67 s


After introducing baffles : cells:118248  faces:398460  points:162329
Cells per refinement level:
    0	1104
    1	12976
    2	100400
    3	3768

Introducing baffles to block off problem cells
----------------------------------------------

markFacesOnProblemCells : marked 0 additional internal faces to be converted into baffles.
Analyzed problem cells in = 0.28 s


Introducing baffles to delete problem cells.

Created baffles in = 0.03 s


After introducing baffles : cells:118248  faces:398460  points:162329
Cells per refinement level:
    0	1104
    1	12976
    2	100400
    3	3768
Setting cellZones according to locationsInMesh:
Location : (0.03 0.03 0.17)
    cellZone : none

For cellZone none found point (0.03 0.03 0.17) in global region 0 out of 1 regions.
Edge intersection testing:
    Number of edges             : 398460
    Number of edges to retest   : 161656
    Number of intersected edges : 52728

Remove unreachable sections of mesh
-----------------------------------

Split mesh in = 0.47 s


After subsetting : cells:118248  faces:398460  points:162329
Cells per refinement level:
    0	1104
    1	12976
    2	100400
    3	3768

Merge free-standing baffles
---------------------------

freeStandingBaffles : detected 0 free-standing baffles out of 0

Detected free-standing baffles : 0
Merged free-standing baffles in = 0.13 s


dupNonManifoldPoints : Found : 0 non-manifold points (out of 162329)
Detected unsplittable baffles : 0

Merge refined boundary faces
----------------------------

Merging 16 sets of faces.

Edge intersection testing:
    Number of edges             : 398444
    Number of edges to retest   : 128
    Number of intersected edges : 52712

Undo iteration 0
----------------
Checking faces in error :
    non-orthogonality > 65  degrees                        : 0
    faces with face pyramid volume < 1e-13                 : 0
    faces with face-decomposition tet quality < 1e-30      : 0
    faces with concavity > 80  degrees                     : 0
    faces with skewness > 4   (internal) or 20  (boundary) : 0
    faces with interpolation weights (0..1)  < 0.02        : 0
    faces with volume ratio of neighbour cells < 0.01      : 0
    faces with face twist < 0.02                           : 0
    faces on cells with determinant < 0.001                : 0

Merging all points on surface that
- are used by only two boundary faces and
- make an angle with a cosine of more than 0.707107.

Removing 16 straight edge points ...

Edge intersection testing:
    Number of edges             : 398444
    Number of edges to retest   : 128
    Number of intersected edges : 52712

Undo iteration 0
----------------
Checking faces in error :
    non-orthogonality > 65  degrees                        : 0
    faces with face pyramid volume < 1e-13                 : 0
    faces with face-decomposition tet quality < 1e-30      : 0
    faces with concavity > 80  degrees                     : 0
    faces with skewness > 4   (internal) or 20  (boundary) : 0
    faces with interpolation weights (0..1)  < 0.02        : 0
    faces with volume ratio of neighbour cells < 0.01      : 0
    faces with face twist < 0.02                           : 0
    faces on cells with determinant < 0.001                : 0
Refined mesh : cells:118248  faces:398444  points:162313
Cells per refinement level:
    0	1104
    1	12976
    2	100400
    3	3768
Writing mesh to time constant
Wrote mesh in = 2.3 s.
Mesh refined in = 15.04 s.

Morphing phase
--------------

Duplicating 0 points on faceZones of type boundary
Constructing mesh displacer ...
Using mesh parameters 
{
    maxNonOrtho     65;
    maxBoundarySkewness 20;
    maxInternalSkewness 4;
    maxConcave      80;
    minFlatness     0.5;
    minVol          1e-13;
    minTetQuality   1e-30;
    minArea         -1;
    minTwist        0.02;
    minDeterminant  0.001;
    minFaceWeight   0.02;
    minVolRatio     0.01;
    minTriangleTwist -1;
    nSmoothScale    4;
    errorReduction  0.75;
}


Checking initial mesh ...
Checking faces in error :
    non-orthogonality > 65  degrees                        : 0
    faces with face pyramid volume < 1e-13                 : 0
    faces with face-decomposition tet quality < 1e-30      : 0
    faces with concavity > 80  degrees                     : 0
    faces with skewness > 4   (internal) or 20  (boundary) : 0
    faces with interpolation weights (0..1)  < 0.02        : 0
    faces with volume ratio of neighbour cells < 0.01      : 0
    faces with face twist < 0.02                           : 0
    faces on cells with determinant < 0.001                : 0
Detected 0 illegal faces (concave, zero area or negative cell pyramid volume)
Checked initial mesh in = 0.61 s


Smoothing patch points ...
Smoothing iteration 0
Found 0 non-manifold point(s).

Scaling iteration 0
Moving mesh using displacement scaling : min:1  max:1
Checking faces in error :
    non-orthogonality > 65  degrees                        : 0
    faces with face pyramid volume < 1e-13                 : 0
    faces with face-decomposition tet quality < 1e-30      : 0
    faces with concavity > 80  degrees                     : 0
    faces with skewness > 4   (internal) or 20  (boundary) : 0
    faces with interpolation weights (0..1)  < 0.02        : 0
    faces with volume ratio of neighbour cells < 0.01      : 0
    faces with face twist < 0.02                           : 0
    faces on cells with determinant < 0.001                : 0
Successfully moved mesh

Smoothing iteration 1
Found 0 non-manifold point(s).

Scaling iteration 0
Moving mesh using displacement scaling : min:1  max:1
Checking faces in error :
    non-orthogonality > 65  degrees                        : 0
    faces with face pyramid volume < 1e-13                 : 0
    faces with face-decomposition tet quality < 1e-30      : 0
    faces with concavity > 80  degrees                     : 0
    faces with skewness > 4   (internal) or 20  (boundary) : 0
    faces with interpolation weights (0..1)  < 0.02        : 0
    faces with volume ratio of neighbour cells < 0.01      : 0
    faces with face twist < 0.02                           : 0
    faces on cells with determinant < 0.001                : 0
Successfully moved mesh

Smoothing iteration 2
Found 0 non-manifold point(s).

Scaling iteration 0
Moving mesh using displacement scaling : min:1  max:1
Checking faces in error :
    non-orthogonality > 65  degrees                        : 16
    faces with face pyramid volume < 1e-13                 : 0
    faces with face-decomposition tet quality < 1e-30      : 0
    faces with concavity > 80  degrees                     : 0
    faces with skewness > 4   (internal) or 20  (boundary) : 0
    faces with interpolation weights (0..1)  < 0.02        : 0
    faces with volume ratio of neighbour cells < 0.01      : 0
    faces with face twist < 0.02                           : 0
    faces on cells with determinant < 0.001                : 0

Scaling iteration 1
Moving mesh using displacement scaling : min:0.75  max:1
Checking faces in error :
    non-orthogonality > 65  degrees                        : 0
    faces with face pyramid volume < 1e-13                 : 0
    faces with face-decomposition tet quality < 1e-30      : 0
    faces with concavity > 80  degrees                     : 0
    faces with skewness > 4   (internal) or 20  (boundary) : 0
    faces with interpolation weights (0..1)  < 0.02        : 0
    faces with volume ratio of neighbour cells < 0.01      : 0
    faces with face twist < 0.02                           : 0
    faces on cells with determinant < 0.001                : 0
Successfully moved mesh

Patch points smoothed in = 1.87 s



Morph iteration 0
-----------------
Calculating patchDisplacement as distance to nearest surface point ...
    non-zone points : attract to nearest of all non-zone surfaces
    zone points     : attract to zone surface only

Wanted displacement : average:0.0054966 min:6.00527e-05 max:0.0635467
Calculated surface displacement in = 0.02 s


Detecting near surfaces ...
Overriding nearest with intersection of close gaps at 0 out of 53450 points.
--> FOAM Warning : Displacement (0.000323198 0.000780268 6.93889e-18) at mesh point 124562 coord (-0.25747 -0.294266 0.0563229) points through the surrounding patch faces
Smoothing displacement ...
Iteration 0
Iteration 10
Iteration 20
Displacement smoothed in = 0.49 s


Moving mesh ...

Iteration 0
Moving mesh using displacement scaling : min:1  max:1
Checking faces in error :
    non-orthogonality > 65  degrees                        : 415
    faces with face pyramid volume < 1e-13                 : 0
    faces with face-decomposition tet quality < 1e-30      : 8
    faces with concavity > 80  degrees                     : 0
    faces with skewness > 4   (internal) or 20  (boundary) : 0
    faces with interpolation weights (0..1)  < 0.02        : 0
    faces with volume ratio of neighbour cells < 0.01      : 0
    faces with face twist < 0.02                           : 0
    faces on cells with determinant < 0.001                : 0

Iteration 1
Moving mesh using displacement scaling : min:0.75  max:1
Checking faces in error :
    non-orthogonality > 65  degrees                        : 368
    faces with face pyramid volume < 1e-13                 : 0
    faces with face-decomposition tet quality < 1e-30      : 0
    faces with concavity > 80  degrees                     : 0
    faces with skewness > 4   (internal) or 20  (boundary) : 0
    faces with interpolation weights (0..1)  < 0.02        : 0
    faces with volume ratio of neighbour cells < 0.01      : 0
    faces with face twist < 0.02                           : 0
    faces on cells with determinant < 0.001                : 0

Iteration 2
Moving mesh using displacement scaling : min:0.5625  max:1
Checking faces in error :
    non-orthogonality > 65  degrees                        : 310
    faces with face pyramid volume < 1e-13                 : 0
    faces with face-decomposition tet quality < 1e-30      : 0
    faces with concavity > 80  degrees                     : 0
    faces with skewness > 4   (internal) or 20  (boundary) : 0
    faces with interpolation weights (0..1)  < 0.02        : 0
    faces with volume ratio of neighbour cells < 0.01      : 0
    faces with face twist < 0.02                           : 0
    faces on cells with determinant < 0.001                : 0

Iteration 3
Moving mesh using displacement scaling : min:0.421875  max:1
Checking faces in error :
    non-orthogonality > 65  degrees                        : 293
    faces with face pyramid volume < 1e-13                 : 0
    faces with face-decomposition tet quality < 1e-30      : 0
    faces with concavity > 80  degrees                     : 0
    faces with skewness > 4   (internal) or 20  (boundary) : 0
    faces with interpolation weights (0..1)  < 0.02        : 0
    faces with volume ratio of neighbour cells < 0.01      : 0
    faces with face twist < 0.02                           : 0
    faces on cells with determinant < 0.001                : 0

Iteration 4
Moving mesh using displacement scaling : min:0.316406  max:1
Checking faces in error :
    non-orthogonality > 65  degrees                        : 288
    faces with face pyramid volume < 1e-13                 : 0
    faces with face-decomposition tet quality < 1e-30      : 0
    faces with concavity > 80  degrees                     : 0
    faces with skewness > 4   (internal) or 20  (boundary) : 0
    faces with interpolation weights (0..1)  < 0.02        : 0
    faces with volume ratio of neighbour cells < 0.01      : 0
    faces with face twist < 0.02                           : 0
    faces on cells with determinant < 0.001                : 0

Iteration 5
Displacement scaling for error reduction set to 0.
Moving mesh using displacement scaling : min:0.237305  max:1
Checking faces in error :
    non-orthogonality > 65  degrees                        : 278
    faces with face pyramid volume < 1e-13                 : 0
    faces with face-decomposition tet quality < 1e-30      : 0
    faces with concavity > 80  degrees                     : 0
    faces with skewness > 4   (internal) or 20  (boundary) : 0
    faces with interpolation weights (0..1)  < 0.02        : 0
    faces with volume ratio of neighbour cells < 0.01      : 0
    faces with face twist < 0.02                           : 0
    faces on cells with determinant < 0.001                : 0

Iteration 6
Moving mesh using displacement scaling : min:0  max:1
Checking faces in error :
    non-orthogonality > 65  degrees                        : 13
    faces with face pyramid volume < 1e-13                 : 0
    faces with face-decomposition tet quality < 1e-30      : 0
    faces with concavity > 80  degrees                     : 0
    faces with skewness > 4   (internal) or 20  (boundary) : 0
    faces with interpolation weights (0..1)  < 0.02        : 0
    faces with volume ratio of neighbour cells < 0.01      : 0
    faces with face twist < 0.02                           : 0
    faces on cells with determinant < 0.001                : 0

Iteration 7
Moving mesh using displacement scaling : min:0  max:1
Checking faces in error :
    non-orthogonality > 65  degrees                        : 0
    faces with face pyramid volume < 1e-13                 : 0
    faces with face-decomposition tet quality < 1e-30      : 0
    faces with concavity > 80  degrees                     : 0
    faces with skewness > 4   (internal) or 20  (boundary) : 0
    faces with interpolation weights (0..1)  < 0.02        : 0
    faces with volume ratio of neighbour cells < 0.01      : 0
    faces with face twist < 0.02                           : 0
    faces on cells with determinant < 0.001                : 0
Successfully moved mesh
Moved mesh in = 1.82 s


Repatching faces according to nearest surface ...
Repatched 0 faces in = 0.27 s


Edge intersection testing:
    Number of edges             : 398444
    Number of edges to retest   : 161640
    Number of intersected edges : 52720
Merging 16064 sets of faces.

Edge intersection testing:
    Number of edges             : 382060
    Number of edges to retest   : 62784
    Number of intersected edges : 36056

Undo iteration 0
----------------
Checking faces in error :
    non-orthogonality > 65  degrees                        : 0
    faces with face pyramid volume < 1e-13                 : 0
    faces with face-decomposition tet quality < 1e-30      : 0
    faces with concavity > 80  degrees                     : 0
    faces with skewness > 4   (internal) or 20  (boundary) : 0
    faces with interpolation weights (0..1)  < 0.02        : 0
    faces with volume ratio of neighbour cells < 0.01      : 0
    faces with face twist < 0.02                           : 0
    faces on cells with determinant < 0.001                : 0

Merging all points on surface that
- are used by only two boundary faces and
- make an angle with a cosine of more than 0.5.

Removing 15864 straight edge points ...

Edge intersection testing:
    Number of edges             : 382060
    Number of edges to retest   : 62752
    Number of intersected edges : 36012

Undo iteration 0
----------------
Checking faces in error :
    non-orthogonality > 65  degrees                        : 0
    faces with face pyramid volume < 1e-13                 : 0
    faces with face-decomposition tet quality < 1e-30      : 0
    faces with concavity > 80  degrees                     : 0
    faces with skewness > 4   (internal) or 20  (boundary) : 0
    faces with interpolation weights (0..1)  < 0.02        : 0
    faces with volume ratio of neighbour cells < 0.01      : 0
    faces with face twist < 0.02                           : 0
    faces on cells with determinant < 0.001                : 0
Snapped mesh : cells:118248  faces:382060  points:146129
Cells per refinement level:
    0	1104
    1	12976
    2	100400
    3	3768
Writing mesh to time constant
Wrote mesh in = 3.06 s.
Mesh snapped in = 8.14 s.
Checking final mesh ...
Checking faces in error :
    non-orthogonality > 65  degrees                        : 0
    faces with face pyramid volume < 1e-13                 : 0
    faces with face-decomposition tet quality < 1e-30      : 0
    faces with concavity > 80  degrees                     : 0
    faces with skewness > 4   (internal) or 20  (boundary) : 0
    faces with interpolation weights (0..1)  < 0.02        : 0
    faces with volume ratio of neighbour cells < 0.01      : 0
    faces with face twist < 0.02                           : 0
    faces on cells with determinant < 0.001                : 0
Finished meshing without any errors
Finished meshing in = 24.26 s.
End

